37
Energy =
Fe   -0.4684750    0.3104560   -0.1850580 
C    -1.7818980    1.3656800    0.1347660 
O    -2.6697640    2.0917530    0.3580540 
P    -1.6378320   -0.7584300   -1.7376190 
C    -2.4410130   -2.0227270   -0.7422810 
C    -2.0400680   -1.9849700    0.5726080 
N    -1.0589480   -1.1368770    1.0085380 
C    -0.9654440   -0.7338780    2.4128340 
C     0.3797500   -0.0125150    2.5641410 
N     0.5440510    0.8324630    1.3895140 
C     1.3967910    1.8683160    1.3263120 
C     1.6079720    2.5903200    0.1564800 
P     0.6190810    1.9732570   -1.1905460 
H    -0.1186960    3.0544220   -1.7622990 
H     1.4564830    1.7506940   -2.3283860 
H     2.2590250    3.4671920    0.1201860 
H     1.9452020    2.1414700    2.2448320 
H     0.4138840    0.5716020    3.5053250 
H     1.1902130   -0.7756790    2.6252620 
H    -1.0294390   -1.6074670    3.0929280 
H    -1.7901850   -0.0387140    2.6756200 
H    -2.4794860   -2.6776540    1.3107560 
H    -3.1364170   -2.7766410   -1.1215590 
H    -2.6551240   -0.1370120   -2.5176620 
H    -0.9651110   -1.4186920   -2.8109950 
O     0.9977570   -1.2133820   -0.5361370 
C     2.4041170   -1.1653690   -0.1702260 
C     3.1901310   -0.7218150   -1.3961250 
H     2.8994200    0.2955070   -1.6992590 
H     4.2692830   -0.7109000   -1.1664410 
H     3.0130580   -1.4117990   -2.2395930 
C     2.8167200   -2.5459020    0.3391360 
H     3.8768070   -2.5424160    0.6465290 
H     2.6805470   -3.3071840   -0.4490460 
H     2.2107280   -2.8383000    1.2156240 
H     2.5246200   -0.4159530    0.6335110 
H     0.4747880   -1.6356600    0.2110800 
37
File created by wolfsort 
Fe	-0.26003536	0.68315879	-0.03583247
C	-1.42206995	1.89220793	0.4471878
O	-2.20371685	2.70676483	0.74874639
P	-1.21757415	-0.04577483	-1.85424536
C	-1.7705173	-1.75933181	-1.29843051
C	-1.67820784	-1.79764481	0.19982864
N	-1.14004449	-0.81394185	0.83513039
C	-1.04828667	-0.75338584	2.30063134
C	0.36329016	-0.2561729	2.65283791
N	0.71792278	0.74332124	1.66691518
C	1.69733055	1.64118738	1.849564
C	2.09764779	2.508717	0.84158752
P	1.20441763	2.2185963	-0.67117933
H	0.82320767	3.48780619	-1.20384044
H	2.0871188	1.82248205	-1.71917506
H	2.87486702	3.26288516	0.9858727
H	2.19487362	1.67207643	2.83449543
H	0.37023142	0.14606104	3.68648269
H	1.05920476	-1.12361409	2.63549181
H	-1.28306396	-1.73040452	2.76226223
H	-1.7974589	-0.01143013	2.63052779
H	-2.08342626	-2.66436647	0.75035012
H	-2.79576322	-2.01030046	-1.63026244
H	-2.4337644	0.42333407	-2.45030735
H	-0.48446001	-0.3019528	-3.0348832
O	0.94273223	-0.61952514	-0.94001591
C	1.76875201	-1.54096201	-0.27268318
C	3.17965555	-0.96170419	-0.08447606
H	3.12850364	0.00677171	0.43855172
H	3.82949177	-1.64568721	0.49385491
H	3.64489774	-0.79067337	-1.07268778
C	1.8153761	-2.84383454	-1.08916875
H	2.52041565	-3.57359615	-0.65049479
H	2.13801205	-2.62110625	-2.1222788
H	0.81975523	-3.32067712	-1.1354971
H	1.36373341	-1.79633531	0.73389209
H	-1.09052022	-2.50975232	-1.73794814
