  90
       -119.19401242
 C         -0.2491521018       -2.4872380310        0.0109440595
 C         -1.5042894239       -2.5283090992        0.6288840038
 C         -2.5884775972       -1.8808948532        0.0272851273
 C         -2.4096578220       -1.1803310067       -1.1697567542
 C         -1.1279005726       -1.0412165849       -1.7105121873
 C         -0.0423858408       -1.6990919543       -1.1255424178
 C          1.3226571957       -1.6039048556       -1.7582853713
 C          1.4627692217       -2.6141281037       -2.8998132827
 H          2.4474748178       -2.5329283780       -3.3548845680
 H          0.7115508200       -2.4395871097       -3.6666982631
 H          1.3344984098       -3.6317673183       -2.5334425278
 H          2.1053673128       -1.7810577621       -1.0257852643
 H          1.4883379140       -0.5917278921       -2.1270296421
 C         -0.9232235196       -0.0566250800       -2.8465635879
 N         -0.9814134536        1.3042553454       -2.3400656116
 C          0.1190877716        1.9461670563       -1.8477555280
 N          1.3200563098        1.4773920375       -2.1741095659
 C          2.4028702716        2.1204811690       -1.7496541142
 C          2.3306628573        3.2752350712       -0.9910917838
 C          1.0780380135        3.7877523258       -0.6468148678
 C         -0.0414684658        3.1113523415       -1.0822550793
 H         -1.0347305643        3.4579970426       -0.8405513795
 C          0.9708641582        5.0274461685        0.1868582762
 H          1.6237024340        5.8068106105       -0.2027464057
 H         -0.0509721683        5.3984085841        0.2031837663
 H          1.2802830241        4.8158511715        1.2108227930
 H          3.2322575332        3.7775827533       -0.6737603243
 C          3.7183481729        1.5031083721       -2.1154190982
 H          3.9944746979        0.7708621156       -1.3555763024
 H          4.4999842988        2.2567820622       -2.1692708441
 H          3.6367039096        0.9888866683       -3.0696740936
 H         -1.8454604882        1.5569878330       -1.8816552447
 H          0.0451221502       -0.1688759441       -3.3231008004
 H         -1.6896794683       -0.1717010322       -3.6161482659
 C         -3.6097209734       -0.6635703103       -1.9304965414
 C         -4.0864659713       -1.7431601195       -2.9077391857
 H         -4.3549438312       -2.6529046352       -2.3748768181
 H         -4.9562022250       -1.3963149575       -3.4618753762
 H         -3.3001025950       -1.9928758684       -3.6166949478
 H         -3.3742530527        0.2393003451       -2.4898383523
 H         -4.4248739753       -0.4023196994       -1.2625212398
 C         -3.9488719184       -1.8384365133        0.6948023184
 N         -4.3577899428       -0.4876920593        1.0623462199
 C         -3.5074768495        0.5687288999        1.2668502224
 N         -4.0259326315        1.7548904744        0.9370174357
 C         -3.3136989714        2.8513864684        1.1538855330
 C         -2.0326654778        2.8137820396        1.6858739065
 C         -1.4748418576        1.5859054848        2.0287855795
 C         -2.2352879101        0.4457701544        1.8294187449
 H         -1.8490724625       -0.5166424208        2.1146906505
 C         -0.1001203415        1.4906705442        2.6089243851
 H          0.2938207780        2.4790910900        2.8312630568
 H          0.5808168464        0.9970817345        1.9145995011
 H         -0.1130375022        0.9041949140        3.5264141838
 H         -1.4820219546        3.7291013533        1.8405232825
 C         -3.9601064793        4.1528411705        0.7803577242
 H         -4.9419909803        3.9649500780        0.3560564374
 H         -3.3517901846        4.6888261630        0.0527113441
 H         -4.0668928910        4.7852634876        1.6603000322
 H         -5.2403951150       -0.1726727923        0.6857928221
 H         -3.9685995879       -2.4595721878        1.5925440320
 H         -4.7033432806       -2.2469038723        0.0170444672
 C         -1.6873739784       -3.3018513931        1.9162092692
 C         -2.1956908389       -4.7176807705        1.6341718355
 H         -3.1533786968       -4.6875950772        1.1196029846
 H         -2.3178761132       -5.2700066419        2.5635672375
 H         -1.4931588843       -5.2557856692        1.0014558790
 H         -2.3916889510       -2.7919625994        2.5748603867
 H         -0.7506958069       -3.3610245708        2.4675784343
 C          0.9273402621       -3.1826822048        0.6684250131
 N          1.5439646175       -2.2856070667        1.6385223963
 C          2.6845018347       -1.5677775439        1.3809663206
 N          2.6831671918       -0.3213120457        1.8485317523
 C          3.7648235369        0.4319051951        1.6919082165
 C          4.9012557148       -0.0328253131        1.0492581513
 C          4.9274699853       -1.3428781050        0.5699609074
 C          3.8025003282       -2.1250440335        0.7445340604
 H          3.7908198780       -3.1520031419        0.4121090246
 C          6.1496464803       -1.8723654588       -0.1143272075
 H          7.0131496141       -1.7968536533        0.5451607540
 H          6.3622471578       -1.2869045831       -1.0084982014
 H          6.0177928304       -2.9127067779       -0.4012440931
 H          5.7620066678        0.6073326072        0.9274534862
 C          3.6737714739        1.8324632305        2.2142576935
 H          4.6620145908        2.2661434368        2.3421124510
 H          3.1099927799        2.4401424866        1.5068373934
 H          3.1415222032        1.8400445132        3.1617759173
 H          0.8661100680       -1.7037516957        2.1173535986
 H          0.6097991015       -4.0943174643        1.1810696501
 H          1.6674814297       -3.4820281788       -0.0697401924
 90
       -119.19406195
 C          1.5446118836       -2.0513556412       -0.1034257845
 C          1.2066324595       -1.5281781390        1.1489644633
 C         -0.1103016475       -1.6468599338        1.6074267385
 C         -1.0917584802       -2.2308470997        0.8010001656
 C         -0.7764726923       -2.5904263470       -0.5134957214
 C          0.5479512466       -2.5344698214       -0.9567551321
 C          0.9196457825       -3.0730907938       -2.3210143135
 C          1.2551059189       -4.5645339776       -2.2216264955
 H          1.5310074805       -4.9582336787       -3.1977236770
 H          0.3966446864       -5.1214319914       -1.8526477995
 H          2.0805057052       -4.7330109710       -1.5338600630
 H          1.7697217698       -2.5323261117       -2.7353854115
 H          0.1020402841       -2.9550649853       -3.0290347793
 C         -1.8814204726       -2.8878736490       -1.5105855545
 N         -2.0924146007       -1.7410833687       -2.3780338821
 C         -2.7566037410       -0.6213812922       -1.9499970682
 N         -3.5644438927       -0.7313744680       -0.9011447171
 C         -4.2608639232        0.3306724860       -0.5104796361
 C         -4.1937668532        1.5457014929       -1.1706359971
 C         -3.3573099446        1.6775706503       -2.2774764587
 C         -2.6231637887        0.5759501114       -2.6674606668
 H         -1.9570159231        0.6230762923       -3.5179896101
 C         -3.2574700932        2.9842242661       -3.0019039815
 H         -4.2489079644        3.3434209703       -3.2733239926
 H         -2.7975124475        3.7306957647       -2.3557104793
 H         -2.6582706721        2.8882993277       -3.9044225829
 H         -4.7807424667        2.3833064725       -0.8279968513
 C         -5.1132203767        0.1619718789        0.7085246004
 H         -6.0335819933        0.7336678426        0.6173263193
 H         -4.5629543555        0.5318753965        1.5740886534
 H         -5.3470229882       -0.8870439003        0.8649224063
 H         -1.3426094197       -1.5424251869       -3.0243883128
 H         -1.6454451767       -3.7505015654       -2.1370676602
 H         -2.8297368196       -3.0747373433       -1.0178423587
 C         -2.4608358433       -2.5393204167        1.3485049714
 C         -2.6051663969       -4.0458368054        1.5836024928
 H         -3.5957260601       -4.2714855457        1.9727001334
 H         -2.4586400759       -4.6091181874        0.6653692390
 H         -1.8662497135       -4.3886142563        2.3064418650
 H         -3.2199124993       -2.1757999261        0.6569711811
 H         -2.6302223736       -2.0261633590        2.2884893612
 C         -0.5260259371       -1.0765333939        2.9487187648
 N         -1.5959552566       -0.1064558491        2.8249262860
 C         -1.6169424384        1.0118213704        2.0422108470
 N         -2.6242230555        1.8416937277        2.3343199913
 C         -2.7704781579        2.9529267443        1.6275394446
 C         -1.9155850698        3.2949245208        0.5909583687
 C         -0.8696827160        2.4361613443        0.2657690357
 C         -0.7161493180        1.2792254969        1.0077886821
 H          0.0841453757        0.6000701725        0.7766713219
 C          0.0543295800        2.7354261065       -0.8735429329
 H          0.1517855781        3.8090306081       -1.0212959480
 H         -0.3543619137        2.3043192734       -1.7880416612
 H          1.0405733420        2.3054075933       -0.7099916169
 H         -2.0631795548        4.2169835737        0.0484663522
 C         -3.9105212992        3.8456513634        2.0192633211
 H         -3.5304487572        4.7498069954        2.4938650242
 H         -4.5578408566        3.3278176273        2.7208429250
 H         -4.4846863290        4.1404535937        1.1434242199
 H         -2.2494396903       -0.0489402091        3.5910753608
 H          0.3274275509       -0.6311255786        3.4690660650
 H         -0.8949420548       -1.8882412085        3.5834938265
 C          2.2663168657       -0.8600095164        1.9947394776
 C          2.8847843112       -1.8398045463        2.9940899910
 H          2.1275944787       -2.2304294592        3.6701270475
 H          3.6545049653       -1.3445629275        3.5823879750
 H          3.3353662053       -2.6837659423        2.4756926078
 H          1.8413860966       -0.0111691934        2.5322586659
 H          3.0499638051       -0.4416178898        1.3658941040
 C          2.9717978333       -1.9527199201       -0.6016837316
 N          3.1557178158       -0.6848285119       -1.2932777765
 C          3.9472888757        0.3357206008       -0.8441193624
 N          3.5171744697        1.5579616134       -1.1612585207
 C          4.2532470345        2.6088717651       -0.8244468091
 C          5.4509401768        2.4857543782       -0.1369055473
 C          5.9178165827        1.2155103764        0.1964797158
 C          5.1566849819        0.1217509159       -0.1691742559
 H          5.4986473454       -0.8790822059        0.0454830322
 C          7.2187173797        1.0525721871        0.9200928205
 H          7.2008614814        1.6069327326        1.8575709944
 H          8.0350484401        1.4475509334        0.3164423813
 H          7.4190598773        0.0056589391        1.1347844479
 H          6.0191633272        3.3636220914        0.1304888824
 C          3.7075400876        3.9527378642       -1.2019529091
 H          2.9731836568        3.8412069488       -1.9942169099
 H          3.2194215953        4.4075084502       -0.3401607075
 H          4.5063225073        4.6136455591       -1.5301665305
 H          2.3152418104       -0.3345397203       -1.7350438149
 H          3.6774800889       -2.0237886186        0.2235371678
 H          3.2063199902       -2.7717956742       -1.2869046349
